*SPEF "ieee 1481-1999"
*DESIGN "wrapped_vga_clock"
*DATE "11:11:11 Fri 11 11, 1111"
*VENDOR "OpenRCX"
*PROGRAM "Parallel Extraction"
*VERSION "1.0"
*DESIGN_FLOW "NAME_SCOPE LOCAL" "PIN_CAP NONE"
*DIVIDER /
*DELIMITER :
*BUS_DELIMITER []
*T_UNIT 1 NS
*C_UNIT 1 PF
*R_UNIT 1 OHM
*L_UNIT 1 HENRY

*NAME_MAP
*1 active
*2 io_in[0]
*3 io_in[10]
*4 io_in[11]
*5 io_in[12]
*6 io_in[13]
*7 io_in[14]
*8 io_in[15]
*9 io_in[16]
*10 io_in[17]
*11 io_in[18]
*12 io_in[19]
*13 io_in[1]
*14 io_in[20]
*15 io_in[21]
*16 io_in[22]
*17 io_in[23]
*18 io_in[24]
*19 io_in[25]
*20 io_in[26]
*21 io_in[27]
*22 io_in[28]
*23 io_in[29]
*24 io_in[2]
*25 io_in[30]
*26 io_in[31]
*27 io_in[32]
*28 io_in[33]
*29 io_in[34]
*30 io_in[35]
*31 io_in[36]
*32 io_in[37]
*33 io_in[3]
*34 io_in[4]
*35 io_in[5]
*36 io_in[6]
*37 io_in[7]
*38 io_in[8]
*39 io_in[9]
*40 io_oeb[0]
*41 io_oeb[10]
*42 io_oeb[11]
*43 io_oeb[12]
*44 io_oeb[13]
*45 io_oeb[14]
*46 io_oeb[15]
*47 io_oeb[16]
*48 io_oeb[17]
*49 io_oeb[18]
*50 io_oeb[19]
*51 io_oeb[1]
*52 io_oeb[20]
*53 io_oeb[21]
*54 io_oeb[22]
*55 io_oeb[23]
*56 io_oeb[24]
*57 io_oeb[25]
*58 io_oeb[26]
*59 io_oeb[27]
*60 io_oeb[28]
*61 io_oeb[29]
*62 io_oeb[2]
*63 io_oeb[30]
*64 io_oeb[31]
*65 io_oeb[32]
*66 io_oeb[33]
*67 io_oeb[34]
*68 io_oeb[35]
*69 io_oeb[36]
*70 io_oeb[37]
*71 io_oeb[3]
*72 io_oeb[4]
*73 io_oeb[5]
*74 io_oeb[6]
*75 io_oeb[7]
*76 io_oeb[8]
*77 io_oeb[9]
*78 io_out[0]
*79 io_out[10]
*80 io_out[11]
*81 io_out[12]
*82 io_out[13]
*83 io_out[14]
*84 io_out[15]
*85 io_out[16]
*86 io_out[17]
*87 io_out[18]
*88 io_out[19]
*89 io_out[1]
*90 io_out[20]
*91 io_out[21]
*92 io_out[22]
*93 io_out[23]
*94 io_out[24]
*95 io_out[25]
*96 io_out[26]
*97 io_out[27]
*98 io_out[28]
*99 io_out[29]
*100 io_out[2]
*101 io_out[30]
*102 io_out[31]
*103 io_out[32]
*104 io_out[33]
*105 io_out[34]
*106 io_out[35]
*107 io_out[36]
*108 io_out[37]
*109 io_out[3]
*110 io_out[4]
*111 io_out[5]
*112 io_out[6]
*113 io_out[7]
*114 io_out[8]
*115 io_out[9]
*116 la1_data_in[0]
*117 la1_data_in[10]
*118 la1_data_in[11]
*119 la1_data_in[12]
*120 la1_data_in[13]
*121 la1_data_in[14]
*122 la1_data_in[15]
*123 la1_data_in[16]
*124 la1_data_in[17]
*125 la1_data_in[18]
*126 la1_data_in[19]
*127 la1_data_in[1]
*128 la1_data_in[20]
*129 la1_data_in[21]
*130 la1_data_in[22]
*131 la1_data_in[23]
*132 la1_data_in[24]
*133 la1_data_in[25]
*134 la1_data_in[26]
*135 la1_data_in[27]
*136 la1_data_in[28]
*137 la1_data_in[29]
*138 la1_data_in[2]
*139 la1_data_in[30]
*140 la1_data_in[31]
*141 la1_data_in[3]
*142 la1_data_in[4]
*143 la1_data_in[5]
*144 la1_data_in[6]
*145 la1_data_in[7]
*146 la1_data_in[8]
*147 la1_data_in[9]
*148 la1_data_out[0]
*149 la1_data_out[10]
*150 la1_data_out[11]
*151 la1_data_out[12]
*152 la1_data_out[13]
*153 la1_data_out[14]
*154 la1_data_out[15]
*155 la1_data_out[16]
*156 la1_data_out[17]
*157 la1_data_out[18]
*158 la1_data_out[19]
*159 la1_data_out[1]
*160 la1_data_out[20]
*161 la1_data_out[21]
*162 la1_data_out[22]
*163 la1_data_out[23]
*164 la1_data_out[24]
*165 la1_data_out[25]
*166 la1_data_out[26]
*167 la1_data_out[27]
*168 la1_data_out[28]
*169 la1_data_out[29]
*170 la1_data_out[2]
*171 la1_data_out[30]
*172 la1_data_out[31]
*173 la1_data_out[3]
*174 la1_data_out[4]
*175 la1_data_out[5]
*176 la1_data_out[6]
*177 la1_data_out[7]
*178 la1_data_out[8]
*179 la1_data_out[9]
*180 la1_oenb[0]
*181 la1_oenb[10]
*182 la1_oenb[11]
*183 la1_oenb[12]
*184 la1_oenb[13]
*185 la1_oenb[14]
*186 la1_oenb[15]
*187 la1_oenb[16]
*188 la1_oenb[17]
*189 la1_oenb[18]
*190 la1_oenb[19]
*191 la1_oenb[1]
*192 la1_oenb[20]
*193 la1_oenb[21]
*194 la1_oenb[22]
*195 la1_oenb[23]
*196 la1_oenb[24]
*197 la1_oenb[25]
*198 la1_oenb[26]
*199 la1_oenb[27]
*200 la1_oenb[28]
*201 la1_oenb[29]
*202 la1_oenb[2]
*203 la1_oenb[30]
*204 la1_oenb[31]
*205 la1_oenb[3]
*206 la1_oenb[4]
*207 la1_oenb[5]
*208 la1_oenb[6]
*209 la1_oenb[7]
*210 la1_oenb[8]
*211 la1_oenb[9]
*214 wb_clk_i
*215 _0000_
*216 _0001_
*217 _0002_
*218 _0003_
*219 _0004_
*220 _0005_
*221 _0006_
*222 _0007_
*223 _0008_
*224 _0009_
*225 _0010_
*226 _0011_
*227 _0012_
*228 _0013_
*229 _0014_
*230 _0015_
*231 _0016_
*232 _0017_
*233 _0018_
*234 _0019_
*235 _0020_
*236 _0021_
*237 _0022_
*238 _0023_
*239 _0024_
*240 _0025_
*241 _0026_
*242 _0027_
*243 _0028_
*244 _0029_
*245 _0030_
*246 _0031_
*247 _0032_
*248 _0033_
*249 _0034_
*250 _0035_
*251 _0036_
*252 _0037_
*253 _0038_
*254 _0039_
*255 _0040_
*256 _0041_
*257 _0042_
*258 _0043_
*259 _0044_
*260 _0045_
*261 _0046_
*262 _0047_
*263 _0048_
*264 _0049_
*265 _0050_
*266 _0051_
*267 _0052_
*268 _0053_
*269 _0054_
*270 _0055_
*271 _0056_
*272 _0057_
*273 _0058_
*274 _0059_
*275 _0060_
*276 _0061_
*277 _0062_
*278 _0063_
*279 _0064_
*280 _0065_
*281 _0066_
*282 _0067_
*283 _0068_
*284 _0069_
*285 _0070_
*286 _0071_
*287 _0072_
*288 _0073_
*289 _0074_
*290 _0075_
*291 _0076_
*292 _0077_
*293 _0078_
*294 _0079_
*295 _0080_
*296 _0081_
*297 _0082_
*298 _0083_
*299 _0084_
*300 _0085_
*301 _0086_
*302 _0087_
*303 _0088_
*304 _0089_
*305 _0090_
*306 _0091_
*307 _0092_
*308 _0093_
*309 _0094_
*310 _0095_
*311 _0096_
*312 _0097_
*313 _0098_
*314 _0099_
*315 _0100_
*316 _0101_
*317 _0102_
*318 _0103_
*319 _0104_
*320 _0105_
*321 _0106_
*322 _0107_
*323 _0108_
*324 _0109_
*325 _0110_
*326 _0111_
*327 _0112_
*328 _0113_
*329 _0114_
*330 _0115_
*331 _0116_
*332 _0117_
*333 _0118_
*334 _0119_
*335 _0120_
*336 _0121_
*337 _0122_
*338 _0123_
*339 _0124_
*340 _0125_
*341 _0126_
*342 _0127_
*343 _0128_
*344 _0129_
*345 _0130_
*346 _0131_
*347 _0132_
*348 _0133_
*349 _0134_
*350 _0135_
*351 _0136_
*352 _0137_
*353 _0138_
*354 _0139_
*355 _0140_
*356 _0141_
*357 _0142_
*358 _0143_
*359 _0144_
*360 _0145_
*361 _0146_
*362 _0147_
*363 _0148_
*364 _0149_
*365 _0150_
*366 _0151_
*367 _0152_
*368 _0153_
*369 _0154_
*370 _0155_
*371 _0156_
*372 _0157_
*373 _0158_
*374 _0159_
*375 _0160_
*376 _0161_
*377 _0162_
*378 _0163_
*379 _0164_
*380 _0165_
*381 _0166_
*382 _0167_
*383 _0168_
*384 _0169_
*385 _0170_
*386 _0171_
*387 _0172_
*388 _0173_
*389 _0174_
*390 _0175_
*391 _0176_
*392 _0177_
*393 _0178_
*394 _0179_
*395 _0180_
*396 _0181_
*397 _0182_
*398 _0183_
*399 _0184_
*400 _0185_
*401 _0186_
*402 _0187_
*403 _0188_
*404 _0189_
*405 _0190_
*406 _0191_
*407 _0192_
*408 _0193_
*409 _0194_
*410 _0195_
*411 _0196_
*412 _0197_
*413 _0198_
*414 _0199_
*415 _0200_
*416 _0201_
*417 _0202_
*418 _0203_
*419 _0204_
*420 _0205_
*421 _0206_
*422 _0207_
*423 _0208_
*424 _0209_
*425 _0210_
*426 _0211_
*427 _0212_
*428 _0213_
*429 _0214_
*430 _0215_
*431 _0216_
*432 _0217_
*433 _0218_
*434 _0219_
*435 _0220_
*436 _0221_
*437 _0222_
*438 _0223_
*439 _0224_
*440 _0225_
*441 _0226_
*442 _0227_
*443 _0228_
*444 _0229_
*445 _0230_
*446 _0231_
*447 _0232_
*448 _0233_
*449 _0234_
*450 _0235_
*451 _0236_
*452 _0237_
*453 _0238_
*454 _0239_
*455 _0240_
*456 _0241_
*457 _0242_
*458 _0243_
*459 _0244_
*460 _0245_
*461 _0246_
*462 _0247_
*463 _0248_
*464 _0249_
*465 _0250_
*466 _0251_
*467 _0252_
*468 _0253_
*469 _0254_
*470 _0255_
*471 _0256_
*472 _0257_
*473 _0258_
*474 _0259_
*475 _0260_
*476 _0261_
*477 _0262_
*478 _0263_
*479 _0264_
*480 _0265_
*481 _0266_
*482 _0267_
*483 _0268_
*484 _0269_
*485 _0270_
*486 _0271_
*487 _0272_
*488 _0273_
*489 _0274_
*490 _0275_
*491 _0276_
*492 _0277_
*493 _0278_
*494 _0279_
*495 _0280_
*496 _0281_
*497 _0282_
*498 _0283_
*499 _0284_
*500 _0285_
*501 _0286_
*502 _0287_
*503 _0288_
*504 _0289_
*505 _0290_
*506 _0291_
*507 _0292_
*508 _0293_
*509 _0294_
*510 _0295_
*511 _0296_
*512 _0297_
*513 _0298_
*514 _0299_
*515 _0300_
*516 _0301_
*517 _0302_
*518 _0303_
*519 _0304_
*520 _0305_
*521 _0306_
*522 _0307_
*523 _0308_
*524 _0309_
*525 _0310_
*526 _0311_
*527 _0312_
*528 _0313_
*529 _0314_
*530 _0315_
*531 _0316_
*532 _0317_
*533 _0318_
*534 _0319_
*535 _0320_
*536 _0321_
*537 _0322_
*538 _0323_
*539 _0324_
*540 _0325_
*541 _0326_
*542 _0327_
*543 _0328_
*544 _0329_
*545 _0330_
*546 _0331_
*547 _0332_
*548 _0333_
*549 _0334_
*550 _0335_
*551 _0336_
*552 _0337_
*553 _0338_
*554 _0339_
*555 _0340_
*556 _0341_
*557 _0342_
*558 _0343_
*559 _0344_
*560 _0345_
*561 _0346_
*562 _0347_
*563 _0348_
*564 _0349_
*565 _0350_
*566 _0351_
*567 _0352_
*568 _0353_
*569 _0354_
*570 _0355_
*571 _0356_
*572 _0357_
*573 _0358_
*574 _0359_
*575 _0360_
*576 _0361_
*577 _0362_
*578 _0363_
*579 _0364_
*580 _0365_
*581 _0366_
*582 _0367_
*583 _0368_
*584 _0369_
*585 _0370_
*586 _0371_
*587 _0372_
*588 _0373_
*589 _0374_
*590 _0375_
*591 _0376_
*592 _0377_
*593 _0378_
*594 _0379_
*595 _0380_
*596 _0381_
*597 _0382_
*598 _0383_
*599 _0384_
*600 _0385_
*601 _0386_
*602 _0387_
*603 _0388_
*604 _0389_
*605 _0390_
*606 _0391_
*607 _0392_
*608 _0393_
*609 _0394_
*610 _0395_
*611 _0396_
*612 _0397_
*613 _0398_
*614 _0399_
*615 _0400_
*616 _0401_
*617 _0402_
*618 _0403_
*619 _0404_
*620 _0405_
*621 _0406_
*622 _0407_
*623 _0408_
*624 _0409_
*625 _0410_
*626 _0411_
*627 _0412_
*628 _0413_
*629 _0414_
*630 _0415_
*631 _0416_
*632 _0417_
*633 _0418_
*634 _0419_
*635 _0420_
*636 _0421_
*637 _0422_
*638 _0423_
*639 _0424_
*640 _0425_
*641 _0426_
*642 _0427_
*643 _0428_
*644 _0429_
*645 _0430_
*646 _0431_
*647 _0432_
*648 _0433_
*649 _0434_
*650 _0435_
*651 _0436_
*652 _0437_
*653 _0438_
*654 _0439_
*655 _0440_
*656 _0441_
*657 _0442_
*658 _0443_
*659 _0444_
*660 _0445_
*661 _0446_
*662 _0447_
*663 _0448_
*664 _0449_
*665 _0450_
*666 _0451_
*667 _0452_
*668 _0453_
*669 _0454_
*670 _0455_
*671 _0456_
*672 _0457_
*673 _0458_
*674 _0459_
*675 _0460_
*676 _0461_
*677 _0462_
*678 _0463_
*679 _0464_
*680 _0465_
*681 _0466_
*682 _0467_
*683 _0468_
*684 _0469_
*685 _0470_
*686 _0471_
*687 _0472_
*688 _0473_
*689 _0474_
*690 _0475_
*691 _0476_
*692 _0477_
*693 _0478_
*694 _0479_
*695 _0480_
*696 _0481_
*697 _0482_
*698 _0483_
*699 _0484_
*700 _0485_
*701 _0486_
*702 _0487_
*703 _0488_
*704 _0489_
*705 _0490_
*706 _0491_
*707 _0492_
*708 _0493_
*709 _0494_
*710 _0495_
*711 _0496_
*712 _0497_
*713 _0498_
*714 _0499_
*715 _0500_
*716 _0501_
*717 _0502_
*718 _0503_
*719 _0504_
*720 _0505_
*721 _0506_
*722 _0507_
*723 _0508_
*724 _0509_
*725 _0510_
*726 _0511_
*727 _0512_
*728 _0513_
*729 _0514_
*730 _0515_
*731 _0516_
*732 _0517_
*733 _0518_
*734 _0519_
*735 _0520_
*736 _0521_
*737 _0522_
*738 _0523_
*739 _0524_
*740 _0525_
*741 _0526_
*742 _0527_
*743 _0528_
*744 _0529_
*745 _0530_
*746 _0531_
*747 _0532_
*748 _0533_
*749 _0534_
*750 _0535_
*751 _0536_
*752 _0537_
*753 _0538_
*754 _0539_
*755 _0540_
*756 _0541_
*757 _0542_
*758 _0543_
*759 _0544_
*760 _0545_
*761 _0546_
*762 _0547_
*763 _0548_
*764 _0549_
*765 _0550_
*766 _0551_
*767 _0552_
*768 _0553_
*769 _0554_
*770 _0555_
*771 _0556_
*772 _0557_
*773 _0558_
*774 _0559_
*775 _0560_
*776 _0561_
*777 _0562_
*778 _0563_
*779 _0564_
*780 _0565_
*781 _0566_
*782 _0567_
*783 _0568_
*784 _0569_
*785 _0570_
*786 _0571_
*787 _0572_
*788 _0573_
*789 _0574_
*790 _0575_
*791 _0576_
*792 _0577_
*793 _0578_
*794 _0579_
*795 _0580_
*796 _0581_
*797 _0582_
*798 _0583_
*799 _0584_
*800 _0585_
*801 _0586_
*802 _0587_
*803 _0588_
*804 _0589_
*805 _0590_
*806 _0591_
*807 _0592_
*808 _0593_
*809 _0594_
*810 _0595_
*811 _0596_
*812 _0597_
*813 _0598_
*814 _0599_
*815 _0600_
*816 _0601_
*817 _0602_
*818 _0603_
*819 _0604_
*820 _0605_
*821 _0606_
*822 _0607_
*823 _0608_
*824 _0609_
*825 _0610_
*826 _0611_
*827 _0612_
*828 _0613_
*829 _0614_
*830 _0615_
*831 _0616_
*832 _0617_
*833 _0618_
*834 _0619_
*835 _0620_
*836 _0621_
*837 _0622_
*838 _0623_
*839 _0624_
*840 _0625_
*841 _0626_
*842 _0627_
*843 _0628_
*844 _0629_
*845 _0630_
*846 _0631_
*847 _0632_
*848 _0633_
*849 _0634_
*850 _0635_
*851 _0636_
*852 _0637_
*853 _0638_
*854 _0639_
*855 _0640_
*856 _0641_
*857 _0642_
*858 _0643_
*859 _0644_
*860 _0645_
*861 _0646_
*862 _0647_
*863 _0648_
*864 _0649_
*865 _0650_
*866 _0651_
*867 _0652_
*868 _0653_
*869 _0654_
*870 _0655_
*871 _0656_
*872 _0657_
*873 _0658_
*874 _0659_
*875 _0660_
*876 _0661_
*877 _0662_
*878 _0663_
*879 _0664_
*880 _0665_
*881 _0666_
*882 _0667_
*883 _0668_
*884 _0669_
*885 _0670_
*886 _0671_
*887 _0672_
*888 _0673_
*889 _0674_
*890 _0675_
*891 _0676_
*892 _0677_
*893 _0678_
*894 _0679_
*895 _0680_
*896 _0681_
*897 _0682_
*898 _0683_
*899 _0684_
*900 _0685_
*901 _0686_
*902 _0687_
*903 _0688_
*904 _0689_
*905 _0690_
*906 _0691_
*907 _0692_
*908 _0693_
*909 _0694_
*910 _0695_
*911 _0696_
*912 _0697_
*913 _0698_
*914 _0699_
*915 _0700_
*916 _0701_
*917 _0702_
*918 _0703_
*919 _0704_
*920 _0705_
*921 _0706_
*922 _0707_
*923 _0708_
*924 _0709_
*925 _0710_
*926 _0711_
*927 _0712_
*928 _0713_
*929 _0714_
*930 _0715_
*931 _0716_
*932 _0717_
*933 _0718_
*934 _0719_
*935 _0720_
*936 _0721_
*937 _0722_
*938 _0723_
*939 _0724_
*940 _0725_
*941 _0726_
*942 _0727_
*943 _0728_
*944 _0729_
*945 _0730_
*946 _0731_
*947 _0732_
*948 _0733_
*949 _0734_
*950 _0735_
*951 _0736_
*952 _0737_
*953 _0738_
*954 _0739_
*955 _0740_
*956 _0741_
*957 _0742_
*958 _0743_
*959 _0744_
*960 _0745_
*961 _0746_
*962 _0747_
*963 _0748_
*964 _0749_
*965 _0750_
*966 _0751_
*967 _0752_
*968 _0753_
*969 _0754_
*970 _0755_
*971 _0756_
*972 _0757_
*973 _0758_
*974 _0759_
*975 _0760_
*976 _0761_
*977 _0762_
*978 _0763_
*979 _0764_
*980 _0765_
*981 _0766_
*982 _0767_
*983 _0768_
*984 _0769_
*985 _0770_
*986 _0771_
*987 _0772_
*988 _0773_
*989 _0774_
*990 _0775_
*991 _0776_
*992 _0777_
*993 _0778_
*994 _0779_
*995 _0780_
*996 _0781_
*997 _0782_
*998 _0783_
*999 _0784_
*1000 _0785_
*1001 _0786_
*1002 _0787_
*1003 _0788_
*1004 _0789_
*1005 _0790_
*1006 _0791_
*1007 _0792_
*1008 _0793_
*1009 _0794_
*1010 _0795_
*1011 _0796_
*1012 _0797_
*1013 _0798_
*1014 _0799_
*1015 _0800_
*1016 _0801_
*1017 _0802_
*1018 _0803_
*1019 _0804_
*1020 _0805_
*1021 _0806_
*1022 _0807_
*1023 _0808_
*1024 _0809_
*1025 _0810_
*1026 _0811_
*1027 _0812_
*1028 _0813_
*1029 _0814_
*1030 _0815_
*1031 _0816_
*1032 _0817_
*1033 _0818_
*1034 _0819_
*1035 _0820_
*1036 _0821_
*1037 _0822_
*1038 _0823_
*1039 _0824_
*1040 _0825_
*1041 _0826_
*1042 _0827_
*1043 _0828_
*1044 _0829_
*1045 _0830_
*1046 _0831_
*1047 _0832_
*1048 _0833_
*1049 _0834_
*1050 _0835_
*1051 _0836_
*1052 _0837_
*1053 _0838_
*1054 _0839_
*1055 _0840_
*1056 _0841_
*1057 _0842_
*1058 _0843_
*1059 _0844_
*1060 _0845_
*1061 _0846_
*1062 _0847_
*1063 _0848_
*1064 _0849_
*1065 _0850_
*1066 clknet_0_wb_clk_i
*1067 clknet_3_0_0_wb_clk_i
*1068 clknet_3_1_0_wb_clk_i
*1069 clknet_3_2_0_wb_clk_i
*1070 clknet_3_3_0_wb_clk_i
*1071 clknet_3_4_0_wb_clk_i
*1072 clknet_3_5_0_wb_clk_i
*1073 clknet_3_6_0_wb_clk_i
*1074 clknet_3_7_0_wb_clk_i
*1075 clknet_4_0_0_wb_clk_i
*1076 clknet_4_10_0_wb_clk_i
*1077 clknet_4_11_0_wb_clk_i
*1078 clknet_4_12_0_wb_clk_i
*1079 clknet_4_13_0_wb_clk_i
*1080 clknet_4_14_0_wb_clk_i
*1081 clknet_4_15_0_wb_clk_i
*1082 clknet_4_1_0_wb_clk_i
*1083 clknet_4_2_0_wb_clk_i
*1084 clknet_4_3_0_wb_clk_i
*1085 clknet_4_4_0_wb_clk_i
*1086 clknet_4_5_0_wb_clk_i
*1087 clknet_4_6_0_wb_clk_i
*1088 clknet_4_7_0_wb_clk_i
*1089 clknet_4_8_0_wb_clk_i
*1090 clknet_4_9_0_wb_clk_i
*1091 net1
*1092 net10
*1093 net100
*1094 net101
*1095 net102
*1096 net103
*1097 net104
*1098 net105
*1099 net106
*1100 net107
*1101 net108
*1102 net109
*1103 net11
*1104 net12
*1105 net13
*1106 net14
*1107 net15
*1108 net16
*1109 net17
*1110 net18
*1111 net19
*1112 net2
*1113 net20
*1114 net21
*1115 net22
*1116 net23
*1117 net24
*1118 net25
*1119 net26
*1120 net27
*1121 net28
*1122 net29
*1123 net3
*1124 net30
*1125 net31
*1126 net32
*1127 net33
*1128 net34
*1129 net35
*1130 net36
*1131 net37
*1132 net38
*1133 net39
*1134 net4
*1135 net40
*1136 net41
*1137 net42
*1138 net43
*1139 net44
*1140 net45
*1141 net46
*1142 net47
*1143 net48
*1144 net49
*1145 net5
*1146 net50
*1147 net51
*1148 net52
*1149 net53
*1150 net54
*1151 net55
*1152 net56
*1153 net57
*1154 net58
*1155 net59
*1156 net6
*1157 net60
*1158 net61
*1159 net62
*1160 net63
*1161 net64
*1162 net65
*1163 net66
*1164 net67
*1165 net68
*1166 net69
*1167 net7
*1168 net70
*1169 net71
*1170 net72
*1171 net73
*1172 net74
*1173 net75
*1174 net76
*1175 net77
*1176 net78
*1177 net79
*1178 net8
*1179 net80
*1180 net81
*1181 net82
*1182 net83
*1183 net84
*1184 net85
*1185 net86
*1186 net87
*1187 net88
*1188 net89
*1189 net9
*1190 net90
*1191 net91
*1192 net92
*1193 net93
*1194 net94
*1195 net95
*1196 net96
*1197 net97
*1198 net98
*1199 net99
*1200 vga_clock\.col_index\[0\]
*1201 vga_clock\.col_index\[1\]
*1202 vga_clock\.col_index_q\[0\]
*1203 vga_clock\.col_index_q\[1\]
*1204 vga_clock\.color\[0\]
*1205 vga_clock\.color\[1\]
*1206 vga_clock\.color\[2\]
*1207 vga_clock\.color\[3\]
*1208 vga_clock\.color\[4\]
*1209 vga_clock\.color\[5\]
*1210 vga_clock\.color_offset\[0\]
*1211 vga_clock\.color_offset\[1\]
*1212 vga_clock\.color_offset\[2\]
*1213 vga_clock\.digit_0\.char\[0\]
*1214 vga_clock\.digit_0\.char\[1\]
*1215 vga_clock\.digit_0\.char\[2\]
*1216 vga_clock\.digit_0\.char\[3\]
*1217 vga_clock\.digit_0\.digit_index\[0\]
*1218 vga_clock\.digit_0\.digit_index\[1\]
*1219 vga_clock\.digit_0\.digit_index\[2\]
*1220 vga_clock\.digit_0\.digit_index\[3\]
*1221 vga_clock\.digit_0\.digit_index\[4\]
*1222 vga_clock\.digit_0\.digit_index\[5\]
*1223 vga_clock\.digit_0\.number\[0\]
*1224 vga_clock\.digit_0\.number\[1\]
*1225 vga_clock\.digit_0\.x_block\[0\]
*1226 vga_clock\.digit_0\.x_block\[1\]
*1227 vga_clock\.draw
*1228 vga_clock\.font_0\.dout\[1\]
*1229 vga_clock\.font_0\.dout\[2\]
*1230 vga_clock\.font_0\.dout\[3\]
*1231 vga_clock\.hrs_d\[0\]
*1232 vga_clock\.hrs_d\[1\]
*1233 vga_clock\.hrs_u\[0\]
*1234 vga_clock\.hrs_u\[1\]
*1235 vga_clock\.hrs_u\[2\]
*1236 vga_clock\.hrs_u\[3\]
*1237 vga_clock\.hsync
*1238 vga_clock\.min_d\[0\]
*1239 vga_clock\.min_d\[1\]
*1240 vga_clock\.min_d\[2\]
*1241 vga_clock\.min_u\[0\]
*1242 vga_clock\.min_u\[1\]
*1243 vga_clock\.min_u\[2\]
*1244 vga_clock\.min_u\[3\]
*1245 vga_clock\.pulse_hrs\.comp\[0\]
*1246 vga_clock\.pulse_hrs\.comp\[1\]
*1247 vga_clock\.pulse_hrs\.comp\[2\]
*1248 vga_clock\.pulse_hrs\.comp\[3\]
*1249 vga_clock\.pulse_hrs\.comp\[4\]
*1250 vga_clock\.pulse_hrs\.count\[0\]
*1251 vga_clock\.pulse_hrs\.count\[1\]
*1252 vga_clock\.pulse_hrs\.count\[2\]
*1253 vga_clock\.pulse_hrs\.count\[3\]
*1254 vga_clock\.pulse_hrs\.count\[4\]
*1255 vga_clock\.pulse_min\.comp\[0\]
*1256 vga_clock\.pulse_min\.comp\[1\]
*1257 vga_clock\.pulse_min\.comp\[2\]
*1258 vga_clock\.pulse_min\.comp\[3\]
*1259 vga_clock\.pulse_min\.comp\[4\]
*1260 vga_clock\.pulse_min\.count\[0\]
*1261 vga_clock\.pulse_min\.count\[1\]
*1262 vga_clock\.pulse_min\.count\[2\]
*1263 vga_clock\.pulse_min\.count\[3\]
*1264 vga_clock\.pulse_min\.count\[4\]
*1265 vga_clock\.pulse_sec\.comp\[0\]
*1266 vga_clock\.pulse_sec\.comp\[1\]
*1267 vga_clock\.pulse_sec\.comp\[2\]
*1268 vga_clock\.pulse_sec\.comp\[3\]
*1269 vga_clock\.pulse_sec\.comp\[4\]
*1270 vga_clock\.pulse_sec\.count\[0\]
*1271 vga_clock\.pulse_sec\.count\[1\]
*1272 vga_clock\.pulse_sec\.count\[2\]
*1273 vga_clock\.pulse_sec\.count\[3\]
*1274 vga_clock\.pulse_sec\.count\[4\]
*1275 vga_clock\.rrggbb\[0\]
*1276 vga_clock\.rrggbb\[1\]
*1277 vga_clock\.rrggbb\[2\]
*1278 vga_clock\.rrggbb\[3\]
*1279 vga_clock\.rrggbb\[4\]
*1280 vga_clock\.rrggbb\[5\]
*1281 vga_clock\.sec_counter\[0\]
*1282 vga_clock\.sec_counter\[10\]
*1283 vga_clock\.sec_counter\[11\]
*1284 vga_clock\.sec_counter\[12\]
*1285 vga_clock\.sec_counter\[13\]
*1286 vga_clock\.sec_counter\[14\]
*1287 vga_clock\.sec_counter\[15\]
*1288 vga_clock\.sec_counter\[16\]
*1289 vga_clock\.sec_counter\[17\]
*1290 vga_clock\.sec_counter\[18\]
*1291 vga_clock\.sec_counter\[19\]
*1292 vga_clock\.sec_counter\[1\]
*1293 vga_clock\.sec_counter\[20\]
*1294 vga_clock\.sec_counter\[21\]
*1295 vga_clock\.sec_counter\[22\]
*1296 vga_clock\.sec_counter\[23\]
*1297 vga_clock\.sec_counter\[24\]
*1298 vga_clock\.sec_counter\[25\]
*1299 vga_clock\.sec_counter\[2\]
*1300 vga_clock\.sec_counter\[3\]
*1301 vga_clock\.sec_counter\[4\]
*1302 vga_clock\.sec_counter\[5\]
*1303 vga_clock\.sec_counter\[6\]
*1304 vga_clock\.sec_counter\[7\]
*1305 vga_clock\.sec_counter\[8\]
*1306 vga_clock\.sec_counter\[9\]
*1307 vga_clock\.sec_d\[0\]
*1308 vga_clock\.sec_d\[1\]
*1309 vga_clock\.sec_d\[2\]
*1310 vga_clock\.sec_u\[0\]
*1311 vga_clock\.sec_u\[1\]
*1312 vga_clock\.sec_u\[2\]
*1313 vga_clock\.sec_u\[3\]
*1314 vga_clock\.vga_0\.hc\[0\]
*1315 vga_clock\.vga_0\.hc\[1\]
*1316 vga_clock\.vga_0\.hc\[2\]
*1317 vga_clock\.vga_0\.hc\[3\]
*1318 vga_clock\.vga_0\.hc\[4\]
*1319 vga_clock\.vga_0\.hc\[5\]
*1320 vga_clock\.vga_0\.hc\[6\]
*1321 vga_clock\.vga_0\.hc\[7\]
*1322 vga_clock\.vga_0\.hc\[8\]
*1323 vga_clock\.vga_0\.hc\[9\]
*1324 vga_clock\.vga_0\.vc\[0\]
*1325 vga_clock\.vga_0\.vc\[1\]
*1326 vga_clock\.vga_0\.vc\[2\]
*1327 vga_clock\.vga_0\.vc\[3\]
*1328 vga_clock\.vga_0\.vc\[4\]
*1329 vga_clock\.vga_0\.vc\[5\]
*1330 vga_clock\.vga_0\.vc\[6\]
*1331 vga_clock\.vga_0\.vc\[7\]
*1332 vga_clock\.vga_0\.vc\[8\]
*1333 vga_clock\.vga_0\.vc\[9\]
*1334 vga_clock\.vga_0\.vsync
*1335 vga_clock\.vga_0\.x_px\[0\]
*1336 vga_clock\.vga_0\.x_px\[1\]
*1337 vga_clock\.vga_0\.x_px\[2\]
*1338 vga_clock\.vga_0\.x_px\[3\]
*1339 vga_clock\.vga_0\.x_px\[6\]
*1340 vga_clock\.vga_0\.x_px\[7\]
*1341 vga_clock\.vga_0\.x_px\[8\]
*1342 vga_clock\.vga_0\.x_px\[9\]
*1343 vga_clock\.vga_0\.y_px\[0\]
*1344 vga_clock\.vga_0\.y_px\[1\]
*1345 vga_clock\.vga_0\.y_px\[2\]
*1346 vga_clock\.vga_0\.y_px\[3\]
*1347 vga_clock\.vga_0\.y_px\[4\]
*1348 vga_clock\.vga_0\.y_px\[5\]
*1349 vga_clock\.vga_0\.y_px\[6\]
*1350 vga_clock\.vga_0\.y_px\[7\]
*1351 vga_clock\.vga_0\.y_px\[8\]
*1352 vga_clock\.vga_0\.y_px\[9\]
*1353 vga_clock\.x_block_q\[0\]
*1354 vga_clock\.x_block_q\[1\]
*1355 vga_clock\.x_block_q\[2\]
*1356 vga_clock\.x_block_q\[3\]
*1357 vga_clock\.x_block_q\[4\]
*1358 vga_clock\.x_block_q\[5\]
*1359 vga_clock\.y_block\[0\]
*1360 vga_clock\.y_block\[1\]
*1361 vga_clock\.y_block\[2\]
*1362 vga_clock\.y_block\[3\]
*1363 vga_clock\.y_block\[4\]
*1364 vga_clock\.y_block\[5\]
*1365 vga_clock\.y_block_q\[0\]
*1366 vga_clock\.y_block_q\[1\]
*1367 vga_clock\.y_block_q\[2\]
*1368 vga_clock\.y_block_q\[3\]
*1369 vga_clock\.y_block_q\[4\]
*1370 vga_clock\.y_block_q\[5\]
*1371 FILLER_0_108
*1372 FILLER_0_116
*1373 FILLER_0_12
*1374 FILLER_0_128
*1375 FILLER_0_141
*1376 FILLER_0_149
*1377 FILLER_0_155
*1378 FILLER_0_167
*1379 FILLER_0_169
*1380 FILLER_0_181
*1381 FILLER_0_193
*1382 FILLER_0_197
*1383 FILLER_0_20
*1384 FILLER_0_209
*1385 FILLER_0_221
*1386 FILLER_0_24
*1387 FILLER_0_246
*1388 FILLER_0_253
*1389 FILLER_0_265
*1390 FILLER_0_277
*1391 FILLER_0_281
*1392 FILLER_0_289
*1393 FILLER_0_293
*1394 FILLER_0_3
*1395 FILLER_0_305
*1396 FILLER_0_309
*1397 FILLER_0_321
*1398 FILLER_0_333
*1399 FILLER_0_337
*1400 FILLER_0_349
*1401 FILLER_0_361
*1402 FILLER_0_365
*1403 FILLER_0_373
*1404 FILLER_0_379
*1405 FILLER_0_386
*1406 FILLER_0_393
*1407 FILLER_0_416
*1408 FILLER_0_421
*1409 FILLER_0_444
*1410 FILLER_0_449
*1411 FILLER_0_50
*1412 FILLER_0_78
*1413 FILLER_0_85
*1414 FILLER_10_109
*1415 FILLER_10_121
*1416 FILLER_10_133
*1417 FILLER_10_139
*1418 FILLER_10_141
*1419 FILLER_10_15
*1420 FILLER_10_153
*1421 FILLER_10_165
*1422 FILLER_10_187
*1423 FILLER_10_195
*1424 FILLER_10_213
*1425 FILLER_10_233
*1426 FILLER_10_240
*1427 FILLER_10_247
*1428 FILLER_10_251
*1429 FILLER_10_253
*1430 FILLER_10_261
*1431 FILLER_10_27
*1432 FILLER_10_280
*1433 FILLER_10_29
*1434 FILLER_10_292
*1435 FILLER_10_3
*1436 FILLER_10_304
*1437 FILLER_10_309
*1438 FILLER_10_321
*1439 FILLER_10_333
*1440 FILLER_10_345
*1441 FILLER_10_357
*1442 FILLER_10_363
*1443 FILLER_10_365
*1444 FILLER_10_377
*1445 FILLER_10_389
*1446 FILLER_10_401
*1447 FILLER_10_41
*1448 FILLER_10_413
*1449 FILLER_10_419
*1450 FILLER_10_421
*1451 FILLER_10_433
*1452 FILLER_10_442
*1453 FILLER_10_450
*1454 FILLER_10_53
*1455 FILLER_10_65
*1456 FILLER_10_77
*1457 FILLER_10_83
*1458 FILLER_10_85
*1459 FILLER_10_97
*1460 FILLER_11_105
*1461 FILLER_11_111
*1462 FILLER_11_113
*1463 FILLER_11_125
*1464 FILLER_11_137
*1465 FILLER_11_145
*1466 FILLER_11_164
*1467 FILLER_11_169
*1468 FILLER_11_179
*1469 FILLER_11_185
*1470 FILLER_11_192
*1471 FILLER_11_207
*1472 FILLER_11_217
*1473 FILLER_11_223
*1474 FILLER_11_230
*1475 FILLER_11_254
*1476 FILLER_11_266
*1477 FILLER_11_278
*1478 FILLER_11_28
*1479 FILLER_11_281
*1480 FILLER_11_3
*1481 FILLER_11_300
*1482 FILLER_11_320
*1483 FILLER_11_330
*1484 FILLER_11_337
*1485 FILLER_11_349
*1486 FILLER_11_361
*1487 FILLER_11_373
*1488 FILLER_11_385
*1489 FILLER_11_391
*1490 FILLER_11_393
*1491 FILLER_11_40
*1492 FILLER_11_405
*1493 FILLER_11_417
*1494 FILLER_11_429
*1495 FILLER_11_441
*1496 FILLER_11_447
*1497 FILLER_11_449
*1498 FILLER_11_52
*1499 FILLER_11_57
*1500 FILLER_11_69
*1501 FILLER_11_81
*1502 FILLER_11_93
*1503 FILLER_12_109
*1504 FILLER_12_121
*1505 FILLER_12_133
*1506 FILLER_12_139
*1507 FILLER_12_141
*1508 FILLER_12_153
*1509 FILLER_12_159
*1510 FILLER_12_168
*1511 FILLER_12_180
*1512 FILLER_12_186
*1513 FILLER_12_194
*1514 FILLER_12_197
*1515 FILLER_12_201
*1516 FILLER_12_207
*1517 FILLER_12_224
*1518 FILLER_12_233
*1519 FILLER_12_24
*1520 FILLER_12_242
*1521 FILLER_12_250
*1522 FILLER_12_253
*1523 FILLER_12_265
*1524 FILLER_12_271
*1525 FILLER_12_277
*1526 FILLER_12_284
*1527 FILLER_12_29
*1528 FILLER_12_304
*1529 FILLER_12_317
*1530 FILLER_12_329
*1531 FILLER_12_346
*1532 FILLER_12_358
*1533 FILLER_12_365
*1534 FILLER_12_377
*1535 FILLER_12_389
*1536 FILLER_12_401
*1537 FILLER_12_41
*1538 FILLER_12_413
*1539 FILLER_12_419
*1540 FILLER_12_421
*1541 FILLER_12_433
*1542 FILLER_12_445
*1543 FILLER_12_53
*1544 FILLER_12_65
*1545 FILLER_12_77
*1546 FILLER_12_83
*1547 FILLER_12_85
*1548 FILLER_12_97
*1549 FILLER_13_105
*1550 FILLER_13_111
*1551 FILLER_13_113
*1552 FILLER_13_125
*1553 FILLER_13_137
*1554 FILLER_13_14
*1555 FILLER_13_149
*1556 FILLER_13_161
*1557 FILLER_13_167
*1558 FILLER_13_169
*1559 FILLER_13_181
*1560 FILLER_13_191
*1561 FILLER_13_203
*1562 FILLER_13_21
*1563 FILLER_13_215
*1564 FILLER_13_223
*1565 FILLER_13_230
*1566 FILLER_13_237
*1567 FILLER_13_257
*1568 FILLER_13_267
*1569 FILLER_13_276
*1570 FILLER_13_284
*1571 FILLER_13_290
*1572 FILLER_13_3
*1573 FILLER_13_307
*1574 FILLER_13_313
*1575 FILLER_13_323
*1576 FILLER_13_33
*1577 FILLER_13_335
*1578 FILLER_13_340
*1579 FILLER_13_348
*1580 FILLER_13_358
*1581 FILLER_13_370
*1582 FILLER_13_382
*1583 FILLER_13_390
*1584 FILLER_13_393
*1585 FILLER_13_405
*1586 FILLER_13_417
*1587 FILLER_13_429
*1588 FILLER_13_440
*1589 FILLER_13_449
*1590 FILLER_13_45
*1591 FILLER_13_53
*1592 FILLER_13_57
*1593 FILLER_13_69
*1594 FILLER_13_7
*1595 FILLER_13_81
*1596 FILLER_13_93
*1597 FILLER_14_109
*1598 FILLER_14_12
*1599 FILLER_14_121
*1600 FILLER_14_133
*1601 FILLER_14_139
*1602 FILLER_14_141
*1603 FILLER_14_153
*1604 FILLER_14_161
*1605 FILLER_14_170
*1606 FILLER_14_19
*1607 FILLER_14_192
*1608 FILLER_14_197
*1609 FILLER_14_205
*1610 FILLER_14_217
*1611 FILLER_14_223
*1612 FILLER_14_227
*1613 FILLER_14_234
*1614 FILLER_14_241
*1615 FILLER_14_249
*1616 FILLER_14_253
*1617 FILLER_14_261
*1618 FILLER_14_27
*1619 FILLER_14_281
*1620 FILLER_14_29
*1621 FILLER_14_3
*1622 FILLER_14_301
*1623 FILLER_14_307
*1624 FILLER_14_309
*1625 FILLER_14_313
*1626 FILLER_14_330
*1627 FILLER_14_351
*1628 FILLER_14_363
*1629 FILLER_14_372
*1630 FILLER_14_380
*1631 FILLER_14_392
*1632 FILLER_14_404
*1633 FILLER_14_41
*1634 FILLER_14_416
*1635 FILLER_14_421
*1636 FILLER_14_425
*1637 FILLER_14_447
*1638 FILLER_14_53
*1639 FILLER_14_65
*1640 FILLER_14_77
*1641 FILLER_14_83
*1642 FILLER_14_85
*1643 FILLER_14_97
*1644 FILLER_15_105
*1645 FILLER_15_111
*1646 FILLER_15_113
*1647 FILLER_15_125
*1648 FILLER_15_137
*1649 FILLER_15_145
*1650 FILLER_15_164
*1651 FILLER_15_179
*1652 FILLER_15_190
*1653 FILLER_15_200
*1654 FILLER_15_220
*1655 FILLER_15_225
*1656 FILLER_15_233
*1657 FILLER_15_241
*1658 FILLER_15_248
*1659 FILLER_15_268
*1660 FILLER_15_27
*1661 FILLER_15_281
*1662 FILLER_15_293
*1663 FILLER_15_3
*1664 FILLER_15_305
*1665 FILLER_15_325
*1666 FILLER_15_332
*1667 FILLER_15_337
*1668 FILLER_15_350
*1669 FILLER_15_362
*1670 FILLER_15_372
*1671 FILLER_15_384
*1672 FILLER_15_39
*1673 FILLER_15_393
*1674 FILLER_15_405
*1675 FILLER_15_417
*1676 FILLER_15_429
*1677 FILLER_15_433
*1678 FILLER_15_440
*1679 FILLER_15_449
*1680 FILLER_15_51
*1681 FILLER_15_55
*1682 FILLER_15_57
*1683 FILLER_15_69
*1684 FILLER_15_81
*1685 FILLER_15_93
*1686 FILLER_16_109
*1687 FILLER_16_121
*1688 FILLER_16_133
*1689 FILLER_16_139
*1690 FILLER_16_141
*1691 FILLER_16_153
*1692 FILLER_16_165
*1693 FILLER_16_177
*1694 FILLER_16_191
*1695 FILLER_16_195
*1696 FILLER_16_197
*1697 FILLER_16_206
*1698 FILLER_16_21
*1699 FILLER_16_214
*1700 FILLER_16_219
*1701 FILLER_16_226
*1702 FILLER_16_238
*1703 FILLER_16_250
*1704 FILLER_16_253
*1705 FILLER_16_265
*1706 FILLER_16_27
*1707 FILLER_16_275
*1708 FILLER_16_287
*1709 FILLER_16_29
*1710 FILLER_16_299
*1711 FILLER_16_3
*1712 FILLER_16_307
*1713 FILLER_16_309
*1714 FILLER_16_321
*1715 FILLER_16_333
*1716 FILLER_16_345
*1717 FILLER_16_349
*1718 FILLER_16_358
*1719 FILLER_16_370
*1720 FILLER_16_374
*1721 FILLER_16_384
*1722 FILLER_16_391
*1723 FILLER_16_398
*1724 FILLER_16_41
*1725 FILLER_16_410
*1726 FILLER_16_418
*1727 FILLER_16_421
*1728 FILLER_16_425
*1729 FILLER_16_447
*1730 FILLER_16_53
*1731 FILLER_16_65
*1732 FILLER_16_77
*1733 FILLER_16_83
*1734 FILLER_16_85
*1735 FILLER_16_9
*1736 FILLER_16_97
*1737 FILLER_17_103
*1738 FILLER_17_111
*1739 FILLER_17_113
*1740 FILLER_17_125
*1741 FILLER_17_13
*1742 FILLER_17_137
*1743 FILLER_17_145
*1744 FILLER_17_151
*1745 FILLER_17_163
*1746 FILLER_17_167
*1747 FILLER_17_169
*1748 FILLER_17_175
*1749 FILLER_17_179
*1750 FILLER_17_190
*1751 FILLER_17_194
*1752 FILLER_17_200
*1753 FILLER_17_220
*1754 FILLER_17_225
*1755 FILLER_17_231
*1756 FILLER_17_248
*1757 FILLER_17_25
*1758 FILLER_17_268
*1759 FILLER_17_297
*1760 FILLER_17_3
*1761 FILLER_17_309
*1762 FILLER_17_317
*1763 FILLER_17_322
*1764 FILLER_17_334
*1765 FILLER_17_337
*1766 FILLER_17_357
*1767 FILLER_17_365
*1768 FILLER_17_37
*1769 FILLER_17_373
*1770 FILLER_17_387
*1771 FILLER_17_391
*1772 FILLER_17_393
*1773 FILLER_17_405
*1774 FILLER_17_417
*1775 FILLER_17_429
*1776 FILLER_17_434
*1777 FILLER_17_441
*1778 FILLER_17_447
*1779 FILLER_17_449
*1780 FILLER_17_49